/*--------------------------------*- C++ -*----------------------------------*\
| =========                 |                                                 |
| \\      /  F ield         | OpenFOAM: The Open Source CFD Toolbox           |
|  \\    /   O peration     | Version:  2.0.0                                 |
|   \\  /    A nd           | Web:      www.OpenFOAM.com                      |
|    \\/     M anipulation  |                                                 |
\*---------------------------------------------------------------------------*/
FoamFile
{
    version     2.0;
    format      ascii;
    class       dictionary;
    object      blockMeshDict;
}

// * * * * * * * * * * * * * * * * * * * * * * * * * * * * * * * * * * * * * //

//scale   0.0005;

vertices
(
    (-100.0 -80.0 0.0)
    (100.0 -80.0  0.0)
    (100.0 80.0   0.0)
    (-100.0 80.0  0.0)
    (-100.0 -80.0 100.0)
    (100.0 -80.0 100.0)
    (100.0 80.0 100.0)
    (-100.0 80.0 100.0)
);

blocks
(
    hex (0 1 2 3 4 5 6 7) movingZone (28 24 1) simpleGrading (1 1 1)
);

boundary
(
    oversetPatch
    {
        type overset;
        faces ((1 2 6 5)
               (0 4 7 3)
               (2 3 7 6)
               (0 1 5 4) 
               (0 3 2 1)
               (4 5 6 7));
}
);

mergePatchPairs
(
);


// ************************************************************************* //
