/*--------------------------------*- C++ -*----------------------------------*\
| =========                 |                                                 |
| \\      /  F ield         | OpenFOAM: The Open Source CFD Toolbox           |
|  \\    /   O peration     | Version:  v1906                                 |
|   \\  /    A nd           | Web:      www.OpenFOAM.com                      |
|    \\/     M anipulation  |                                                 |
\*---------------------------------------------------------------------------*/
FoamFile
{
    version     2.0;
    format      ascii;
    class       dictionary;
    object      dynamicMeshDict;
}
// * * * * * * * * * * * * * * * * * * * * * * * * * * * * * * * * * * * * * //

dynamicFvMesh       dynamicOversetFvMesh;

//motionSolverLibs ( "libfvMotionSolvers.so" );
//
//solver          displacementLaplacian;
//
//displacementLaplacianCoeffs
//{
//    diffusivity     uniform 1;
//}

solver          multiSolidBodyMotionSolver;

multiSolidBodyMotionSolverCoeffs
{
    movingZone
    {
     solidBodyMotionFunction oscillatingRotatingMotion;
       oscillatingRotatingMotionCoeffs
        {
            origin      (0.00 0.00 0.00);
            amplitude   (0 0 1);
            omega       10.0;
        }
    }
}

// ************************************************************************* //
